$ -------------------------------------------------------------------- $
$ WAVEWATCH III Initial conditions input file                          $
$ Small uniform JONSWAP seed (Hs ~ 0.1 m, fp = 0.2 Hz).                $
$ -------------------------------------------------------------------- $
   2
   5.3E-5  0.20  270.  3.3  0.07  0.09  0.0  1.E10  0.0  1.E10
$ -------------------------------------------------------------------- $
$ End of input file                                                    $
$ -------------------------------------------------------------------- $
